Circuit: * D:\REPO\Analog_design\lab1\task2-3\Draft3.asc


Date: Thu Feb 22 23:00:30 2018
Total elapsed time: 0.078 seconds.

tnom = 27
temp = 27
method = trap
totiter = 0
traniter = 0
tranpoints = 0
accept = 0
rejected = 0
matrix size = 3
fillins = 0
solver = Normal

